Version 4
SHEET 1 900 680
WIRE 528 -32 528 -64
WIRE -336 -16 -336 -48
WIRE 752 -16 752 -64
WIRE -336 96 -336 64
WIRE 624 96 624 -64
WIRE 16 112 16 48
WIRE 16 112 -144 112
WIRE 48 112 16 112
WIRE 80 112 48 112
WIRE 208 112 160 112
WIRE 288 112 208 112
WIRE 592 112 288 112
WIRE -144 128 -144 112
WIRE 752 128 752 64
WIRE 752 128 656 128
WIRE 528 144 528 48
WIRE 592 144 528 144
WIRE 288 160 288 112
WIRE 48 208 48 112
WIRE 80 208 48 208
WIRE 208 208 208 112
WIRE 208 208 144 208
WIRE 624 224 624 160
WIRE -144 240 -144 208
WIRE 288 272 288 224
WIRE 400 320 352 320
WIRE 528 320 528 144
WIRE 528 320 480 320
WIRE 624 320 528 320
WIRE 752 320 752 128
WIRE 752 320 704 320
WIRE 352 352 352 320
FLAG 288 272 0
FLAG 624 224 0
FLAG 624 -64 V+
FLAG -336 -48 V+
FLAG 16 -144 V+
FLAG 528 -64 V+
FLAG 752 -64 V+
FLAG 352 352 0
FLAG -144 240 0
FLAG -336 96 0
SYMBOL res 0 -48 R0
SYMATTR InstName R1
SYMATTR Value 47k
SYMBOL res 512 -48 R0
SYMATTR InstName R3
SYMATTR Value 100k
SYMBOL res 736 -32 R0
SYMATTR InstName R4
SYMATTR Value 47k
SYMBOL voltage -336 -32 R0
WINDOW 123 0 0 Left 0
WINDOW 39 0 0 Left 0
SYMATTR InstName V1
SYMATTR Value 3.3
SYMBOL voltage -144 112 R0
WINDOW 123 0 0 Left 0
WINDOW 39 0 0 Left 0
SYMATTR InstName V2
SYMATTR Value PULSE(0 3 0 1p 1p 70u 140u)
SYMBOL res 176 96 R90
WINDOW 0 0 56 VBottom 2
WINDOW 3 32 56 VTop 2
SYMATTR InstName R5
SYMATTR Value 150
SYMBOL cap 272 160 R0
SYMATTR InstName C2
SYMATTR Value 1n
SYMBOL res 496 304 R90
WINDOW 0 0 56 VBottom 2
WINDOW 3 32 56 VTop 2
SYMATTR InstName R6
SYMATTR Value 100k
SYMBOL res 720 304 R90
WINDOW 0 0 56 VBottom 2
WINDOW 3 32 56 VTop 2
SYMATTR InstName R7
SYMATTR Value 56k
SYMBOL Opamps\\UniversalOpamp2 624 128 R0
SYMATTR InstName U1
SYMBOL diode 144 192 R90
WINDOW 0 0 32 VBottom 2
WINDOW 3 32 32 VTop 2
SYMATTR InstName D1
TEXT -370 376 Left 2 !.tran 0.2m
